molecules/bdc/bdc.pdb
 OpenBabel01242513383D

 60 60  0  0  0  0  0  0  0  0999 V2000
   -0.8220  -10.7350   -0.5410 C   0  0  0  0  0  0  0  0  0  0  0  0
   -0.8760   -9.2990    0.0090 C   0  0  0  0  0  0  0  0  0  0  0  0
    0.3910   -8.4820   -0.3060 C   0  0  0  0  0  0  0  0  0  0  0  0
    0.3490   -7.0460    0.2480 C   0  0  0  0  0  0  0  0  0  0  0  0
    1.6160   -6.2320   -0.0790 C   0  0  0  0  0  0  0  0  0  0  0  0
    1.6480   -4.8160    0.5350 C   0  0  0  0  0  0  0  0  0  0  0  0
    0.5960   -3.8490   -0.0430 C   0  0  0  0  0  0  0  0  0  0  0  0
    0.6850   -2.4340    0.5610 C   0  0  0  0  0  0  0  0  0  0  0  0
   -0.3580   -1.4600   -0.0180 C   0  0  0  0  0  0  0  0  0  0  0  0
   -0.2880   -0.0550    0.6100 C   0  0  0  0  0  0  0  0  0  0  0  0
   -1.3500    0.9050    0.0290 C   0  0  0  0  0  0  0  0  0  0  0  0
   -1.4060    2.2940    0.6970 C   0  0  0  0  0  0  0  0  0  0  0  0
   -0.6870    3.4490   -0.0440 N   0  0  0  0  0  4  0  0  0  0  0  0
    0.7540    3.0930   -0.3430 C   0  0  0  0  0  0  0  0  0  0  0  0
   -1.4060    3.7640   -1.3420 C   0  0  0  0  0  0  0  0  0  0  0  0
   -0.7450    4.6950    0.9160 C   0  0  0  0  0  0  0  0  0  0  0  0
   -0.1520    5.9670    0.3740 C   0  0  0  0  0  0  0  0  0  0  0  0
    1.2040    6.2770    0.5970 C   0  0  0  0  0  0  0  0  0  0  0  0
    1.7460    7.4800    0.1270 C   0  0  0  0  0  0  0  0  0  0  0  0
    0.9350    8.3910   -0.5620 C   0  0  0  0  0  0  0  0  0  0  0  0
   -0.4210    8.1050   -0.7700 C   0  0  0  0  0  0  0  0  0  0  0  0
   -0.9620    6.9030   -0.3000 C   0  0  0  0  0  0  0  0  0  0  0  0
   -1.7370  -11.2890   -0.3030 H   0  0  0  0  0  0  0  0  0  0  0  0
    0.0250  -11.2880   -0.1160 H   0  0  0  0  0  0  0  0  0  0  0  0
   -0.7050  -10.7350   -1.6330 H   0  0  0  0  0  0  0  0  0  0  0  0
   -1.0250   -9.3300    1.0990 H   0  0  0  0  0  0  0  0  0  0  0  0
   -1.7530   -8.7800   -0.4080 H   0  0  0  0  0  0  0  0  0  0  0  0
    1.2690   -9.0050    0.1050 H   0  0  0  0  0  0  0  0  0  0  0  0
    0.5370   -8.4470   -1.3970 H   0  0  0  0  0  0  0  0  0  0  0  0
    0.2180   -7.0840    1.3420 H   0  0  0  0  0  0  0  0  0  0  0  0
   -0.5400   -6.5370   -0.1540 H   0  0  0  0  0  0  0  0  0  0  0  0
    1.7290   -6.1560   -1.1720 H   0  0  0  0  0  0  0  0  0  0  0  0
    2.4940   -6.7890    0.2810 H   0  0  0  0  0  0  0  0  0  0  0  0
    2.6480   -4.3840    0.3790 H   0  0  0  0  0  0  0  0  0  0  0  0
    1.5100   -4.8940    1.6250 H   0  0  0  0  0  0  0  0  0  0  0  0
    0.7250   -3.7870   -1.1350 H   0  0  0  0  0  0  0  0  0  0  0  0
   -0.4130   -4.2480    0.1300 H   0  0  0  0  0  0  0  0  0  0  0  0
    1.6960   -2.0300    0.3920 H   0  0  0  0  0  0  0  0  0  0  0  0
    0.5550   -2.4990    1.6530 H   0  0  0  0  0  0  0  0  0  0  0  0
   -1.3660   -1.8740    0.1350 H   0  0  0  0  0  0  0  0  0  0  0  0
   -0.2170   -1.3830   -1.1070 H   0  0  0  0  0  0  0  0  0  0  0  0
    0.7230    0.3520    0.4690 H   0  0  0  0  0  0  0  0  0  0  0  0
   -0.4410   -0.1380    1.6960 H   0  0  0  0  0  0  0  0  0  0  0  0
   -2.3380    0.4460    0.1650 H   0  0  0  0  0  0  0  0  0  0  0  0
   -1.2230    0.9880   -1.0580 H   0  0  0  0  0  0  0  0  0  0  0  0
   -0.9520    2.2570    1.6920 H   0  0  0  0  0  0  0  0  0  0  0  0
   -2.4370    2.6400    0.8070 H   0  0  0  0  0  0  0  0  0  0  0  0
    0.7770    2.2340   -1.0120 H   0  0  0  0  0  0  0  0  0  0  0  0
    1.2600    2.8490    0.5930 H   0  0  0  0  0  0  0  0  0  0  0  0
    1.2340    3.9480   -0.8170 H   0  0  0  0  0  0  0  0  0  0  0  0
   -1.3800    2.8870   -1.9870 H   0  0  0  0  0  0  0  0  0  0  0  0
   -0.9040    4.5990   -1.8280 H   0  0  0  0  0  0  0  0  0  0  0  0
   -2.4400    4.0290   -1.1180 H   0  0  0  0  0  0  0  0  0  0  0  0
   -0.2280    4.3660    1.8200 H   0  0  0  0  0  0  0  0  0  0  0  0
   -1.8080    4.8160    1.1430 H   0  0  0  0  0  0  0  0  0  0  0  0
    1.8350    5.5930    1.1590 H   0  0  0  0  0  0  0  0  0  0  0  0
    2.7890    7.7100    0.3120 H   0  0  0  0  0  0  0  0  0  0  0  0
    1.3530    9.3260   -0.9200 H   0  0  0  0  0  0  0  0  0  0  0  0
   -1.0570    8.8200   -1.2810 H   0  0  0  0  0  0  0  0  0  0  0  0
   -2.0220    6.7040   -0.4390 H   0  0  0  0  0  0  0  0  0  0  0  0
  1 23  1  0  0  0  0
  1 25  1  0  0  0  0
  1  2  1  0  0  0  0
  1 24  1  0  0  0  0
  2 27  1  0  0  0  0
  2 26  1  0  0  0  0
  2  3  1  0  0  0  0
  3 29  1  0  0  0  0
  3 28  1  0  0  0  0
  3  4  1  0  0  0  0
  4 31  1  0  0  0  0
  4 30  1  0  0  0  0
  4  5  1  0  0  0  0
  5 32  1  0  0  0  0
  5 33  1  0  0  0  0
  5  6  1  0  0  0  0
  6  7  1  0  0  0  0
  6 34  1  0  0  0  0
  6 35  1  0  0  0  0
  7 36  1  0  0  0  0
  7 37  1  0  0  0  0
  7  8  1  0  0  0  0
  8 39  1  0  0  0  0
  8  9  1  0  0  0  0
  8 38  1  0  0  0  0
  9 40  1  0  0  0  0
  9 41  1  0  0  0  0
  9 10  1  0  0  0  0
 10 11  1  0  0  0  0
 10 42  1  0  0  0  0
 10 43  1  0  0  0  0
 11 45  1  0  0  0  0
 11 12  1  0  0  0  0
 11 44  1  0  0  0  0
 12 46  1  0  0  0  0
 12 13  1  0  0  0  0
 12 47  1  0  0  0  0
 13 15  1  0  0  0  0
 13 16  1  0  0  0  0
 13 14  1  0  0  0  0
 14 48  1  0  0  0  0
 14 50  1  0  0  0  0
 14 49  1  0  0  0  0
 15 51  1  0  0  0  0
 15 53  1  0  0  0  0
 15 52  1  0  0  0  0
 16 55  1  0  0  0  0
 16 17  1  0  0  0  0
 16 54  1  0  0  0  0
 17 22  2  0  0  0  0
 17 18  1  0  0  0  0
 18 56  1  0  0  0  0
 18 19  2  0  0  0  0
 19 20  1  0  0  0  0
 19 57  1  0  0  0  0
 20 21  2  0  0  0  0
 20 58  1  0  0  0  0
 21 22  1  0  0  0  0
 21 59  1  0  0  0  0
 22 60  1  0  0  0  0
M  END
