563
  Fe
Fe      0.000000    0.000000    0.000000
Fe      0.000000    0.000000    2.840052
Fe      0.000000    0.000000    5.680103
Fe      0.000000    2.840052    0.000000
Fe      0.000000    2.840052    2.840052
Fe      1.420026    1.420026    1.420026
Fe      0.000000    2.840052    5.680103
Fe      1.420026    1.420026    4.260078
Fe      0.000000    5.680103    0.000000
Fe      0.000000    5.680103    2.840052
Fe      1.420026    4.260078    1.420026
Fe      0.000000    5.680103    5.680103
Fe      1.420026    4.260078    4.260078
Fe      0.000000    8.520155    0.000000
Fe      0.000000    8.520155    2.840052
Fe      1.420026    7.100129    1.420026
Fe      0.000000    8.520155    5.680103
Fe      1.420026    7.100129    4.260078
Fe      0.000000   11.360207    0.000000
Fe      0.000000   11.360207    2.840052
Fe      1.420026    9.940181    1.420026
Fe      0.000000   11.360207    5.680103
Fe      1.420026    9.940181    4.260078
Fe      0.000000   14.200258    0.000000
Fe      0.000000   14.200258    2.840052
Fe      1.420026   12.780233    1.420026
Fe      0.000000   14.200258    5.680103
Fe      1.420026   12.780233    4.260078
Fe      0.000000   17.040310    0.000000
Fe      0.000000   17.040310    2.840052
Fe      1.420026   15.620284    1.420026
Fe      0.000000   17.040310    5.680103
Fe      1.420026   15.620284    4.260078
Fe      0.000000   19.880362    0.000000
Fe      0.000000   19.880362    2.840052
Fe      1.420026   18.460336    1.420026
Fe      0.000000   19.880362    5.680103
Fe      1.420026   18.460336    4.260078
Fe      0.000000   22.720413    0.000000
Fe      0.000000   22.720413    2.840052
Fe      1.420026   21.300388    1.420026
Fe      0.000000   22.720413    5.680103
Fe      1.420026   21.300388    4.260078
Fe      0.000000   25.560465    0.000000
Fe      0.000000   25.560465    2.840052
Fe      1.420026   24.140439    1.420026
Fe      0.000000   25.560465    5.680103
Fe      1.420026   24.140439    4.260078
Fe      0.000000   28.400517    0.000000
Fe      0.000000   28.400517    2.840052
Fe      1.420026   26.980491    1.420026
Fe      0.000000   28.400517    5.680103
Fe      1.420026   26.980491    4.260078
Fe      2.840052    0.000000    0.000000
Fe      2.840052    0.000000    2.840052
Fe      2.840052    0.000000    5.680103
Fe      2.840052    2.840052    0.000000
Fe      2.840052    2.840052    2.840052
Fe      4.260078    1.420026    1.420026
Fe      2.840052    2.840052    5.680103
Fe      4.260078    1.420026    4.260078
Fe      2.840052    5.680103    0.000000
Fe      2.840052    5.680103    2.840052
Fe      4.260078    4.260078    1.420026
Fe      2.840052    5.680103    5.680103
Fe      4.260078    4.260078    4.260078
Fe      2.840052    8.520155    0.000000
Fe      2.840052    8.520155    2.840052
Fe      4.260078    7.100129    1.420026
Fe      2.840052    8.520155    5.680103
Fe      4.260078    7.100129    4.260078
Fe      2.840052   11.360207    0.000000
Fe      2.840052   11.360207    2.840052
Fe      4.260078    9.940181    1.420026
Fe      2.840052   11.360207    5.680103
Fe      4.260078    9.940181    4.260078
Fe      2.840052   14.200258    0.000000
Fe      2.840052   14.200258    2.840052
Fe      4.260078   12.780233    1.420026
Fe      2.840052   14.200258    5.680103
Fe      4.260078   12.780233    4.260078
Fe      2.840052   17.040310    0.000000
Fe      2.840052   17.040310    2.840052
Fe      4.260078   15.620284    1.420026
Fe      2.840052   17.040310    5.680103
Fe      4.260078   15.620284    4.260078
Fe      2.840052   19.880362    0.000000
Fe      2.840052   19.880362    2.840052
Fe      4.260078   18.460336    1.420026
Fe      2.840052   19.880362    5.680103
Fe      4.260078   18.460336    4.260078
Fe      2.840052   22.720413    0.000000
Fe      2.840052   22.720413    2.840052
Fe      4.260078   21.300388    1.420026
Fe      2.840052   22.720413    5.680103
Fe      4.260078   21.300388    4.260078
Fe      2.840052   25.560465    0.000000
Fe      2.840052   25.560465    2.840052
Fe      4.260078   24.140439    1.420026
Fe      2.840052   25.560465    5.680103
Fe      4.260078   24.140439    4.260078
Fe      2.840052   28.400517    0.000000
Fe      2.840052   28.400517    2.840052
Fe      4.260078   26.980491    1.420026
Fe      2.840052   28.400517    5.680103
Fe      4.260078   26.980491    4.260078
Fe      5.680103    0.000000    0.000000
Fe      5.680103    0.000000    2.840052
Fe      5.680103    0.000000    5.680103
Fe      5.680103    2.840052    0.000000
Fe      5.680103    2.840052    2.840052
Fe      7.100129    1.420026    1.420026
Fe      5.680103    2.840052    5.680103
Fe      7.100129    1.420026    4.260078
Fe      5.680103    5.680103    0.000000
Fe      5.680103    5.680103    2.840052
Fe      7.100129    4.260078    1.420026
Fe      5.680103    5.680103    5.680103
Fe      7.100129    4.260078    4.260078
Fe      5.680103    8.520155    0.000000
Fe      5.680103    8.520155    2.840052
Fe      7.100129    7.100129    1.420026
Fe      5.680103    8.520155    5.680103
Fe      7.100129    7.100129    4.260078
Fe      5.680103   11.360207    0.000000
Fe      5.680103   11.360207    2.840052
Fe      7.100129    9.940181    1.420026
Fe      5.680103   11.360207    5.680103
Fe      7.100129    9.940181    4.260078
Fe      5.680103   14.200258    0.000000
Fe      5.680103   14.200258    2.840052
Fe      7.100129   12.780233    1.420026
Fe      5.680103   14.200258    5.680103
Fe      7.100129   12.780233    4.260078
Fe      5.680103   17.040310    0.000000
Fe      5.680103   17.040310    2.840052
Fe      7.100129   15.620284    1.420026
Fe      5.680103   17.040310    5.680103
Fe      7.100129   15.620284    4.260078
Fe      5.680103   19.880362    0.000000
Fe      5.680103   19.880362    2.840052
Fe      7.100129   18.460336    1.420026
Fe      5.680103   19.880362    5.680103
Fe      7.100129   18.460336    4.260078
Fe      5.680103   22.720413    0.000000
Fe      5.680103   22.720413    2.840052
Fe      7.100129   21.300388    1.420026
Fe      5.680103   22.720413    5.680103
Fe      7.100129   21.300388    4.260078
Fe      5.680103   25.560465    0.000000
Fe      5.680103   25.560465    2.840052
Fe      7.100129   24.140439    1.420026
Fe      5.680103   25.560465    5.680103
Fe      7.100129   24.140439    4.260078
Fe      5.680103   28.400517    0.000000
Fe      5.680103   28.400517    2.840052
Fe      7.100129   26.980491    1.420026
Fe      5.680103   28.400517    5.680103
Fe      7.100129   26.980491    4.260078
Fe      8.520155    0.000000    0.000000
Fe      8.520155    0.000000    2.840052
Fe      8.520155    0.000000    5.680103
Fe      8.520155    2.840052    0.000000
Fe      8.520155    2.840052    2.840052
Fe      9.940181    1.420026    1.420026
Fe      8.520155    2.840052    5.680103
Fe      9.940181    1.420026    4.260078
Fe      8.520155    5.680103    0.000000
Fe      8.520155    5.680103    2.840052
Fe      9.940181    4.260078    1.420026
Fe      8.520155    5.680103    5.680103
Fe      9.940181    4.260078    4.260078
Fe      8.520155    8.520155    0.000000
Fe      8.520155    8.520155    2.840052
Fe      9.940181    7.100129    1.420026
Fe      8.520155    8.520155    5.680103
Fe      9.940181    7.100129    4.260078
Fe      8.520155   11.360207    0.000000
Fe      8.520155   11.360207    2.840052
Fe      9.940181    9.940181    1.420026
Fe      8.520155   11.360207    5.680103
Fe      9.940181    9.940181    4.260078
Fe      8.520155   14.200258    0.000000
Fe      8.520155   14.200258    2.840052
Fe      9.940181   12.780233    1.420026
Fe      8.520155   14.200258    5.680103
Fe      9.940181   12.780233    4.260078
Fe      8.520155   17.040310    0.000000
Fe      8.520155   17.040310    2.840052
Fe      9.940181   15.620284    1.420026
Fe      8.520155   17.040310    5.680103
Fe      9.940181   15.620284    4.260078
Fe      8.520155   19.880362    0.000000
Fe      8.520155   19.880362    2.840052
Fe      9.940181   18.460336    1.420026
Fe      8.520155   19.880362    5.680103
Fe      9.940181   18.460336    4.260078
Fe      8.520155   22.720413    0.000000
Fe      8.520155   22.720413    2.840052
Fe      9.940181   21.300388    1.420026
Fe      8.520155   22.720413    5.680103
Fe      9.940181   21.300388    4.260078
Fe      8.520155   25.560465    0.000000
Fe      8.520155   25.560465    2.840052
Fe      9.940181   24.140439    1.420026
Fe      8.520155   25.560465    5.680103
Fe      9.940181   24.140439    4.260078
Fe      8.520155   28.400517    0.000000
Fe      8.520155   28.400517    2.840052
Fe      9.940181   26.980491    1.420026
Fe      8.520155   28.400517    5.680103
Fe      9.940181   26.980491    4.260078
Fe     11.360207    0.000000    0.000000
Fe     11.360207    0.000000    2.840052
Fe     11.360207    0.000000    5.680103
Fe     11.360207    2.840052    0.000000
Fe     11.360207    2.840052    2.840052
Fe     12.780233    1.420026    1.420026
Fe     11.360207    2.840052    5.680103
Fe     12.780233    1.420026    4.260078
Fe     11.360207    5.680103    0.000000
Fe     11.360207    5.680103    2.840052
Fe     12.780233    4.260078    1.420026
Fe     11.360207    5.680103    5.680103
Fe     12.780233    4.260078    4.260078
Fe     11.360207    8.520155    0.000000
Fe     11.360207    8.520155    2.840052
Fe     12.780233    7.100129    1.420026
Fe     11.360207    8.520155    5.680103
Fe     12.780233    7.100129    4.260078
Fe     11.360207   11.360207    0.000000
Fe     11.360207   11.360207    2.840052
Fe     12.780233    9.940181    1.420026
Fe     11.360207   11.360207    5.680103
Fe     12.780233    9.940181    4.260078
Fe     11.360207   14.200258    0.000000
Fe     11.360207   14.200258    2.840052
Fe     12.780233   12.780233    1.420026
Fe     11.360207   14.200258    5.680103
Fe     12.780233   12.780233    4.260078
Fe     11.360207   17.040310    0.000000
Fe     11.360207   17.040310    2.840052
Fe     12.780233   15.620284    1.420026
Fe     11.360207   17.040310    5.680103
Fe     12.780233   15.620284    4.260078
Fe     11.360207   19.880362    0.000000
Fe     11.360207   19.880362    2.840052
Fe     12.780233   18.460336    1.420026
Fe     11.360207   19.880362    5.680103
Fe     12.780233   18.460336    4.260078
Fe     11.360207   22.720413    0.000000
Fe     11.360207   22.720413    2.840052
Fe     12.780233   21.300388    1.420026
Fe     11.360207   22.720413    5.680103
Fe     12.780233   21.300388    4.260078
Fe     11.360207   25.560465    0.000000
Fe     11.360207   25.560465    2.840052
Fe     12.780233   24.140439    1.420026
Fe     11.360207   25.560465    5.680103
Fe     12.780233   24.140439    4.260078
Fe     11.360207   28.400517    0.000000
Fe     11.360207   28.400517    2.840052
Fe     12.780233   26.980491    1.420026
Fe     11.360207   28.400517    5.680103
Fe     12.780233   26.980491    4.260078
Fe     14.200258    0.000000    0.000000
Fe     14.200258    0.000000    2.840052
Fe     14.200258    0.000000    5.680103
Fe     14.200258    2.840052    0.000000
Fe     14.200258    2.840052    2.840052
Fe     15.620284    1.420026    1.420026
Fe     14.200258    2.840052    5.680103
Fe     15.620284    1.420026    4.260078
Fe     14.200258    5.680103    0.000000
Fe     14.200258    5.680103    2.840052
Fe     15.620284    4.260078    1.420026
Fe     14.200258    5.680103    5.680103
Fe     15.620284    4.260078    4.260078
Fe     14.200258    8.520155    0.000000
Fe     14.200258    8.520155    2.840052
Fe     15.620284    7.100129    1.420026
Fe     14.200258    8.520155    5.680103
Fe     15.620284    7.100129    4.260078
Fe     14.200258   11.360207    0.000000
Fe     14.200258   11.360207    2.840052
Fe     15.620284    9.940181    1.420026
Fe     14.200258   11.360207    5.680103
Fe     15.620284    9.940181    4.260078
Fe     14.200258   14.200258    0.000000
Fe     14.200258   14.200258    2.840052
Fe     15.620284   12.780233    1.420026
Fe     14.200258   14.200258    5.680103
Fe     15.620284   12.780233    4.260078
Fe     14.200258   17.040310    0.000000
Fe     14.200258   17.040310    2.840052
Fe     15.620284   15.620284    1.420026
Fe     14.200258   17.040310    5.680103
Fe     15.620284   15.620284    4.260078
Fe     14.200258   19.880362    0.000000
Fe     14.200258   19.880362    2.840052
Fe     15.620284   18.460336    1.420026
Fe     14.200258   19.880362    5.680103
Fe     15.620284   18.460336    4.260078
Fe     14.200258   22.720413    0.000000
Fe     14.200258   22.720413    2.840052
Fe     15.620284   21.300388    1.420026
Fe     14.200258   22.720413    5.680103
Fe     15.620284   21.300388    4.260078
Fe     14.200258   25.560465    0.000000
Fe     14.200258   25.560465    2.840052
Fe     15.620284   24.140439    1.420026
Fe     14.200258   25.560465    5.680103
Fe     15.620284   24.140439    4.260078
Fe     14.200258   28.400517    0.000000
Fe     14.200258   28.400517    2.840052
Fe     15.620284   26.980491    1.420026
Fe     14.200258   28.400517    5.680103
Fe     15.620284   26.980491    4.260078
Fe     17.040310    0.000000    0.000000
Fe     17.040310    0.000000    2.840052
Fe     17.040310    0.000000    5.680103
Fe     17.040310    2.840052    0.000000
Fe     17.040310    2.840052    2.840052
Fe     18.460336    1.420026    1.420026
Fe     17.040310    2.840052    5.680103
Fe     18.460336    1.420026    4.260078
Fe     17.040310    5.680103    0.000000
Fe     17.040310    5.680103    2.840052
Fe     18.460336    4.260078    1.420026
Fe     17.040310    5.680103    5.680103
Fe     18.460336    4.260078    4.260078
Fe     17.040310    8.520155    0.000000
Fe     17.040310    8.520155    2.840052
Fe     18.460336    7.100129    1.420026
Fe     17.040310    8.520155    5.680103
Fe     18.460336    7.100129    4.260078
Fe     17.040310   11.360207    0.000000
Fe     17.040310   11.360207    2.840052
Fe     18.460336    9.940181    1.420026
Fe     17.040310   11.360207    5.680103
Fe     18.460336    9.940181    4.260078
Fe     17.040310   14.200258    0.000000
Fe     17.040310   14.200258    2.840052
Fe     18.460336   12.780233    1.420026
Fe     17.040310   14.200258    5.680103
Fe     18.460336   12.780233    4.260078
Fe     17.040310   17.040310    0.000000
Fe     17.040310   17.040310    2.840052
Fe     18.460336   15.620284    1.420026
Fe     17.040310   17.040310    5.680103
Fe     18.460336   15.620284    4.260078
Fe     17.040310   19.880362    0.000000
Fe     17.040310   19.880362    2.840052
Fe     18.460336   18.460336    1.420026
Fe     17.040310   19.880362    5.680103
Fe     18.460336   18.460336    4.260078
Fe     17.040310   22.720413    0.000000
Fe     17.040310   22.720413    2.840052
Fe     18.460336   21.300388    1.420026
Fe     17.040310   22.720413    5.680103
Fe     18.460336   21.300388    4.260078
Fe     17.040310   25.560465    0.000000
Fe     17.040310   25.560465    2.840052
Fe     18.460336   24.140439    1.420026
Fe     17.040310   25.560465    5.680103
Fe     18.460336   24.140439    4.260078
Fe     17.040310   28.400517    0.000000
Fe     17.040310   28.400517    2.840052
Fe     18.460336   26.980491    1.420026
Fe     17.040310   28.400517    5.680103
Fe     18.460336   26.980491    4.260078
Fe     19.880362    0.000000    0.000000
Fe     19.880362    0.000000    2.840052
Fe     19.880362    0.000000    5.680103
Fe     19.880362    2.840052    0.000000
Fe     19.880362    2.840052    2.840052
Fe     21.300388    1.420026    1.420026
Fe     19.880362    2.840052    5.680103
Fe     21.300388    1.420026    4.260078
Fe     19.880362    5.680103    0.000000
Fe     19.880362    5.680103    2.840052
Fe     21.300388    4.260078    1.420026
Fe     19.880362    5.680103    5.680103
Fe     21.300388    4.260078    4.260078
Fe     19.880362    8.520155    0.000000
Fe     19.880362    8.520155    2.840052
Fe     21.300388    7.100129    1.420026
Fe     19.880362    8.520155    5.680103
Fe     21.300388    7.100129    4.260078
Fe     19.880362   11.360207    0.000000
Fe     19.880362   11.360207    2.840052
Fe     21.300388    9.940181    1.420026
Fe     19.880362   11.360207    5.680103
Fe     21.300388    9.940181    4.260078
Fe     19.880362   14.200258    0.000000
Fe     19.880362   14.200258    2.840052
Fe     21.300388   12.780233    1.420026
Fe     19.880362   14.200258    5.680103
Fe     21.300388   12.780233    4.260078
Fe     19.880362   17.040310    0.000000
Fe     19.880362   17.040310    2.840052
Fe     21.300388   15.620284    1.420026
Fe     19.880362   17.040310    5.680103
Fe     21.300388   15.620284    4.260078
Fe     19.880362   19.880362    0.000000
Fe     19.880362   19.880362    2.840052
Fe     21.300388   18.460336    1.420026
Fe     19.880362   19.880362    5.680103
Fe     21.300388   18.460336    4.260078
Fe     19.880362   22.720413    0.000000
Fe     19.880362   22.720413    2.840052
Fe     21.300388   21.300388    1.420026
Fe     19.880362   22.720413    5.680103
Fe     21.300388   21.300388    4.260078
Fe     19.880362   25.560465    0.000000
Fe     19.880362   25.560465    2.840052
Fe     21.300388   24.140439    1.420026
Fe     19.880362   25.560465    5.680103
Fe     21.300388   24.140439    4.260078
Fe     19.880362   28.400517    0.000000
Fe     19.880362   28.400517    2.840052
Fe     21.300388   26.980491    1.420026
Fe     19.880362   28.400517    5.680103
Fe     21.300388   26.980491    4.260078
Fe     22.720413    0.000000    0.000000
Fe     22.720413    0.000000    2.840052
Fe     22.720413    0.000000    5.680103
Fe     22.720413    2.840052    0.000000
Fe     22.720413    2.840052    2.840052
Fe     24.140439    1.420026    1.420026
Fe     22.720413    2.840052    5.680103
Fe     24.140439    1.420026    4.260078
Fe     22.720413    5.680103    0.000000
Fe     22.720413    5.680103    2.840052
Fe     24.140439    4.260078    1.420026
Fe     22.720413    5.680103    5.680103
Fe     24.140439    4.260078    4.260078
Fe     22.720413    8.520155    0.000000
Fe     22.720413    8.520155    2.840052
Fe     24.140439    7.100129    1.420026
Fe     22.720413    8.520155    5.680103
Fe     24.140439    7.100129    4.260078
Fe     22.720413   11.360207    0.000000
Fe     22.720413   11.360207    2.840052
Fe     24.140439    9.940181    1.420026
Fe     22.720413   11.360207    5.680103
Fe     24.140439    9.940181    4.260078
Fe     22.720413   14.200258    0.000000
Fe     22.720413   14.200258    2.840052
Fe     24.140439   12.780233    1.420026
Fe     22.720413   14.200258    5.680103
Fe     24.140439   12.780233    4.260078
Fe     22.720413   17.040310    0.000000
Fe     22.720413   17.040310    2.840052
Fe     24.140439   15.620284    1.420026
Fe     22.720413   17.040310    5.680103
Fe     24.140439   15.620284    4.260078
Fe     22.720413   19.880362    0.000000
Fe     22.720413   19.880362    2.840052
Fe     24.140439   18.460336    1.420026
Fe     22.720413   19.880362    5.680103
Fe     24.140439   18.460336    4.260078
Fe     22.720413   22.720413    0.000000
Fe     22.720413   22.720413    2.840052
Fe     24.140439   21.300388    1.420026
Fe     22.720413   22.720413    5.680103
Fe     24.140439   21.300388    4.260078
Fe     22.720413   25.560465    0.000000
Fe     22.720413   25.560465    2.840052
Fe     24.140439   24.140439    1.420026
Fe     22.720413   25.560465    5.680103
Fe     24.140439   24.140439    4.260078
Fe     22.720413   28.400517    0.000000
Fe     22.720413   28.400517    2.840052
Fe     24.140439   26.980491    1.420026
Fe     22.720413   28.400517    5.680103
Fe     24.140439   26.980491    4.260078
Fe     25.560465    0.000000    0.000000
Fe     25.560465    0.000000    2.840052
Fe     25.560465    0.000000    5.680103
Fe     25.560465    2.840052    0.000000
Fe     25.560465    2.840052    2.840052
Fe     26.980491    1.420026    1.420026
Fe     25.560465    2.840052    5.680103
Fe     26.980491    1.420026    4.260078
Fe     25.560465    5.680103    0.000000
Fe     25.560465    5.680103    2.840052
Fe     26.980491    4.260078    1.420026
Fe     25.560465    5.680103    5.680103
Fe     26.980491    4.260078    4.260078
Fe     25.560465    8.520155    0.000000
Fe     25.560465    8.520155    2.840052
Fe     26.980491    7.100129    1.420026
Fe     25.560465    8.520155    5.680103
Fe     26.980491    7.100129    4.260078
Fe     25.560465   11.360207    0.000000
Fe     25.560465   11.360207    2.840052
Fe     26.980491    9.940181    1.420026
Fe     25.560465   11.360207    5.680103
Fe     26.980491    9.940181    4.260078
Fe     25.560465   14.200258    0.000000
Fe     25.560465   14.200258    2.840052
Fe     26.980491   12.780233    1.420026
Fe     25.560465   14.200258    5.680103
Fe     26.980491   12.780233    4.260078
Fe     25.560465   17.040310    0.000000
Fe     25.560465   17.040310    2.840052
Fe     26.980491   15.620284    1.420026
Fe     25.560465   17.040310    5.680103
Fe     26.980491   15.620284    4.260078
Fe     25.560465   19.880362    0.000000
Fe     25.560465   19.880362    2.840052
Fe     26.980491   18.460336    1.420026
Fe     25.560465   19.880362    5.680103
Fe     26.980491   18.460336    4.260078
Fe     25.560465   22.720413    0.000000
Fe     25.560465   22.720413    2.840052
Fe     26.980491   21.300388    1.420026
Fe     25.560465   22.720413    5.680103
Fe     26.980491   21.300388    4.260078
Fe     25.560465   25.560465    0.000000
Fe     25.560465   25.560465    2.840052
Fe     26.980491   24.140439    1.420026
Fe     25.560465   25.560465    5.680103
Fe     26.980491   24.140439    4.260078
Fe     25.560465   28.400517    0.000000
Fe     25.560465   28.400517    2.840052
Fe     26.980491   26.980491    1.420026
Fe     25.560465   28.400517    5.680103
Fe     26.980491   26.980491    4.260078
Fe     28.400517    0.000000    0.000000
Fe     28.400517    0.000000    2.840052
Fe     28.400517    0.000000    5.680103
Fe     28.400517    2.840052    0.000000
Fe     28.400517    2.840052    2.840052
Fe     28.400517    2.840052    5.680103
Fe     28.400517    5.680103    0.000000
Fe     28.400517    5.680103    2.840052
Fe     28.400517    5.680103    5.680103
Fe     28.400517    8.520155    0.000000
Fe     28.400517    8.520155    2.840052
Fe     28.400517    8.520155    5.680103
Fe     28.400517   11.360207    0.000000
Fe     28.400517   11.360207    2.840052
Fe     28.400517   11.360207    5.680103
Fe     28.400517   14.200258    0.000000
Fe     28.400517   14.200258    2.840052
Fe     28.400517   14.200258    5.680103
Fe     28.400517   17.040310    0.000000
Fe     28.400517   17.040310    2.840052
Fe     28.400517   17.040310    5.680103
Fe     28.400517   19.880362    0.000000
Fe     28.400517   19.880362    2.840052
Fe     28.400517   19.880362    5.680103
Fe     28.400517   22.720413    0.000000
Fe     28.400517   22.720413    2.840052
Fe     28.400517   22.720413    5.680103
Fe     28.400517   25.560465    0.000000
Fe     28.400517   25.560465    2.840052
Fe     28.400517   25.560465    5.680103
Fe     28.400517   28.400517    0.000000
Fe     28.400517   28.400517    2.840052
Fe     28.400517   28.400517    5.680103
